output/ny_only_package_b/source_response_exact_bus_voltage_comparison.csv
source_bus,model_bus,device_key,base_kv,source_vm_pu,regional_vm_pu,delta_vm_pu,source_va_deg,regional_va_deg,source_va_aligned_deg,regional_va_aligned_deg,delta_va_deg
2,20002,PERFORM2019:BUS:2,69,1.00956364680907,1.04762976369627,0.0380661168872019,0.0848020017169208,-0.779836256642661,0.0848020017169208,-0.779836256642661,-0.864638258359577
3,20003,PERFORM2019:BUS:3,115,1.01663867972829,1.05385384858895,0.037215168860661,5.1714959783491,4.82763881482612,5.1714959783491,4.82763881482612,-0.343857163522983
4,20004,PERFORM2019:BUS:4,115,1.01250606834053,1.04787623727738,0.0353701689368582,16.0734111206851,15.0961175530146,16.0734111206851,15.0961175530146,-0.977293567670529
5,20005,PERFORM2019:BUS:5,115,1.01847535322033,1.05566478770199,0.0371894344816537,8.29504253517196,7.75819456734474,8.29504253517196,7.75819456734474,-0.536847967827214
6,20006,PERFORM2019:BUS:6,115,1.03541833777559,1.06923219063609,0.0338138528604943,5.62815562727469,5.31294834082902,5.62815562727469,5.31294834082902,-0.315207286445656
7,20007,PERFORM2019:BUS:7,115,1.03267872776206,1.0675331194162,0.0348543916541402,4.85456298213884,4.57608628909591,4.85456298213884,4.57608628909591,-0.278476693042933
8,20008,PERFORM2019:BUS:8,115,1.01335272272013,1.04904173866779,0.0356890159476548,5.28133268685064,4.87763099989126,5.28133268685064,4.87763099989126,-0.40370168695938
9,20009,PERFORM2019:BUS:9,115,1.05585832207041,1.08269916387575,0.026840841805337,-7.04913888206375,-6.68557268452393,-7.04913888206375,-6.68557268452393,0.363566197539825
10,20010,PERFORM2019:BUS:10,115,1.00316455948391,1.0392422791769,0.0360777196929907,12.7950535048827,12.019799669177,12.7950535048827,12.019799669177,-0.775253835705712
11,20011,PERFORM2019:BUS:11,115,1.01682515351153,1.05402841143667,0.0372032579251353,5.13422392632202,4.7922862615103,5.13422392632202,4.7922862615103,-0.341937664811724
12,20012,PERFORM2019:BUS:12,115,1.0238847283734,1.0580093553153,0.0341246269418976,4.07602207300051,3.81186801680037,4.07602207300051,3.81186801680037,-0.264154056200141
13,20013,PERFORM2019:BUS:13,115,1.01929021004424,1.05361770353707,0.034327493492829,3.29425893015398,3.03306559387127,3.29425893015398,3.03306559387127,-0.261193336282702
14,20014,PERFORM2019:BUS:14,115,1.0192156085418,1.05214396384725,0.0329283553054451,1.26102048915733,0.287996267273245,1.26102048915733,0.287996267273245,-0.973024221884089
15,20015,PERFORM2019:BUS:15,115,1.02675301736705,1.06236983248185,0.0356168151148006,21.3150778267516,16.2970796087194,21.3150778267516,16.2970796087194,-5.01799821803215
16,20016,PERFORM2019:BUS:16,115,1.00462210387368,1.04867489477614,0.0440527909024659,10.5609028693653,5.53242966571016,10.5609028693653,5.53242966571016,-5.0284732036551
17,20017,PERFORM2019:BUS:17,138,1.06356342351299,1.08105066635441,0.0174872428414146,-25.6195953715976,-24.6592910752914,-25.6195953715976,-24.6592910752914,0.960304296306191
18,20018,PERFORM2019:BUS:18,69,1.06856561610029,1.08140729499174,0.0128416788914527,-16.2827300214403,-15.5537415386619,-16.2827300214403,-15.5537415386619,0.728988482778419
19,20019,PERFORM2019:BUS:19,115,1.03691516002248,1.06456026490053,0.0276451048780522,-15.3977854690383,-14.8327598256552,-15.3977854690383,-14.8327598256552,0.565025643383109
20,20020,PERFORM2019:BUS:20,115,1.0192907216425,1.04879686726743,0.0295061456249319,23.1154624058066,19.1520853983983,23.1154624058066,19.1520853983983,-3.96337700740821
21,20021,PERFORM2019:BUS:21,115,1.01914733777935,1.048934537986,0.0297872002066497,23.1705757896679,19.1732814728208,23.1705757896679,19.1732814728208,-3.9972943168471
22,20022,PERFORM2019:BUS:22,69,1.00557891089221,1.04365261933555,0.0380737084433327,-0.234664825813203,-1.50483305438458,-0.234664825813203,-1.50483305438458,-1.27016822857138
23,20023,PERFORM2019:BUS:23,115,0.999656164788245,1.038431815396,0.0387756506077549,2.6126748839219,0.254802610889412,2.6126748839219,0.254802610889412,-2.35787227303248
25,20025,PERFORM2019:BUS:25,115,1.03140206126846,1.0722093800571,0.0408073187886397,19.0525716247685,13.1845271461658,19.0525716247685,13.1845271461658,-5.86804447860277
26,20026,PERFORM2019:BUS:26,345,1.07531962286332,1.08409041690419,0.00877079404087455,-12.4980239383731,-11.8878716593043,-12.4980239383731,-11.8878716593043,0.610152279068757
28,20028,PERFORM2019:BUS:28,115,1.01903510384638,1.0624385846612,0.0434034808148154,20.1327135830256,10.1175973533564,20.1327135830256,10.1175973533564,-10.0151162296692
31,20031,PERFORM2019:BUS:31,115,1.01431009551866,1.05121904280972,0.0369089472910624,6.4427488756792,5.94168973304328,6.4427488756792,5.94168973304328,-0.50105914263591
32,20032,PERFORM2019:BUS:32,115,1.01402807706936,1.05107169577322,0.037043618703865,6.46310898695794,5.95915075009585,6.46310898695794,5.95915075009585,-0.503958236862076
35,20035,PERFORM2019:BUS:35,115,1.01640290178911,1.05215260504891,0.0357497032598006,14.5541217953587,13.6358970238276,14.5541217953587,13.6358970238276,-0.918224771531186
36,20036,PERFORM2019:BUS:36,115,1.01635264635099,1.0520919716913,0.0357393253403075,14.5860932868558,13.6658889292691,14.5860932868558,13.6658889292691,-0.920204357586641
40,20040,PERFORM2019:BUS:40,115,1.04466971217509,1.07281843849807,0.028148726322982,24.9825858454011,23.1836254848112,24.9825858454011,23.1836254848112,-1.79896036058983
49,20049,PERFORM2019:BUS:49,115,0.998397185792664,1.03910699367528,0.0407098078826177,4.75951910094204,1.52315230337885,4.75951910094204,1.52315230337885,-3.23636679756319
50,20050,PERFORM2019:BUS:50,115,1.01536559717268,1.04109086796633,0.0257252707936511,20.9068110940144,16.7670204357133,20.9068110940144,16.7670204357133,-4.13979065830108
59,20059,PERFORM2019:BUS:59,115,1.03118220435049,1.07142153977425,0.0402393354237642,19.0516310311889,13.1910873486001,19.0516310311889,13.1910873486001,-5.86054368258877
60,20060,PERFORM2019:BUS:60,69,1.03938075951612,1.06614415910025,0.0267633995841334,0.766234318277436,1.01633513877601,0.766234318277436,1.01633513877601,0.250100820498574
62,20062,PERFORM2019:BUS:62,345,1.06296118664947,1.09256617781802,0.0296049911685456,7.22052425013095,6.96774202098037,7.22052425013095,6.96774202098037,-0.252782229150569
63,20063,PERFORM2019:BUS:63,345,1.06297426991486,1.09257248846775,0.0295982185528851,7.23501198375017,6.9816494023553,7.23501198375017,6.9816494023553,-0.253362581394867
64,20064,PERFORM2019:BUS:64,115,1.00777383182771,1.03910364511762,0.0313298132899058,18.4866832256339,12.6537173538151,18.4866832256339,12.6537173538151,-5.83296587181889
79,20079,PERFORM2019:BUS:79,345,1.0748228256732,1.0846088015582,0.00978597588499519,-12.6933985357597,-12.0851697705499,-12.6933985357597,-12.0851697705499,0.608228765209788
80,20080,PERFORM2019:BUS:80,115,1.01750995310416,1.05854827135362,0.0410383182494576,20.1887627253247,9.18647836696931,20.1887627253247,9.18647836696931,-11.0022843583554
82,20082,PERFORM2019:BUS:82,115,1.01474460530676,1.06086810972966,0.0461235044228916,8.40807999420027,6.90230130717205,8.40807999420027,6.90230130717205,-1.50577868702823
83,20083,PERFORM2019:BUS:83,115,1.03145325762955,1.07224610698774,0.0407928493581926,19.1033636175881,13.2316887265635,19.1033636175881,13.2316887265635,-5.87167489102458
84,20084,PERFORM2019:BUS:84,115,1.01466866212055,1.05104646934908,0.0363778072285239,6.33183286117371,5.84638148614008,6.33183286117371,5.84638148614008,-0.48545137503362
125,20125,PERFORM2019:BUS:125,115,1.04179120265599,1.05971726478333,0.0179260621273447,27.5700410427201,24.9954057244621,27.5700410427201,24.9954057244621,-2.57463531825809
126,20126,PERFORM2019:BUS:126,115,1.04177990990117,1.05972106675106,0.0179411568498979,27.5410447585295,24.9637127822725,27.5410447585295,24.9637127822725,-2.57733197625706
127,20127,PERFORM2019:BUS:127,115,1.03403471153277,1.0720479473268,0.0380132357940324,7.08472863286183,6.6088446704812,7.08472863286183,6.6088446704812,-0.475883962380635
168,20168,PERFORM2019:BUS:168,115,1.0097635709062,1.04184207328613,0.0320785023799346,12.1691155043238,-0.381688341923281,12.1691155043238,-0.381688341923281,-12.550803846247
186,20186,PERFORM2019:BUS:186,115,1.05085602864749,1.0794177253589,0.0285616967114095,3.49786409381642,4.25580648579516,3.49786409381642,4.25580648579516,0.757942391978759
187,20187,PERFORM2019:BUS:187,115,1.04645047515206,1.07641361448441,0.0299631393323485,4.26331207428105,5.35886404563127,4.26331207428105,5.35886404563127,1.09555197135023
188,20188,PERFORM2019:BUS:188,115,1.01735399020033,1.04853468177065,0.0311806915703199,-2.66448854459433,-2.54814013688852,-2.66448854459433,-2.54814013688852,0.1163484077058
189,20189,PERFORM2019:BUS:189,115,1.02633704113459,1.05674618259567,0.030409141461077,0.0882542457420452,0.0487506620701773,0.0882542457420452,0.0487506620701773,-0.0395035836718591
190,20190,PERFORM2019:BUS:190,115,1.02306902355101,1.05579068296801,0.0327216594170032,18.8448444952326,17.521209907225,18.8448444952326,17.521209907225,-1.32363458800756
191,20191,PERFORM2019:BUS:191,115,1.00821283562725,1.04423437903449,0.0360215434072433,13.1694257280993,12.3549717810578,13.1694257280993,12.3549717810578,-0.814453947041528
192,20192,PERFORM2019:BUS:192,115,1.01564357968125,1.05105731728667,0.035413737605422,16.0871324312982,15.0956295278807,16.0871324312982,15.0956295278807,-0.99150290341754
193,20193,PERFORM2019:BUS:193,115,1.01225533437735,1.04763412883921,0.0353787944618662,16.0144774397777,15.0410945419152,16.0144774397777,15.0410945419152,-0.973382897862479
194,20194,PERFORM2019:BUS:194,115,1.02007308605601,1.05406659881733,0.0339935127613211,3.43249941032143,3.17705319346752,3.43249941032143,3.17705319346752,-0.255446216853898
195,20195,PERFORM2019:BUS:195,115,1.02002573302607,1.05402098926893,0.0339952562428625,3.42070778427618,3.16600706862052,3.42070778427618,3.16600706862052,-0.254700715655673
196,20196,PERFORM2019:BUS:196,115,1.01950311370938,1.05371569064117,0.0342125769317905,3.32695302870014,3.06877651121461,3.32695302870014,3.06877651121461,-0.258176517485538
203,20203,PERFORM2019:BUS:203,115,1.02150356178825,1.06575028194586,0.0442467201576124,7.7678831013036,7.82522805575788,7.7678831013036,7.82522805575788,0.0573449544542939
204,20204,PERFORM2019:BUS:204,115,1.029750744444,1.07198577969027,0.0422350352462737,7.18986757986302,9.11657145670279,7.18986757986302,9.11657145670279,1.92670387683978
205,20205,PERFORM2019:BUS:205,115,1.040479747418,1.07281368220348,0.0323339347854759,5.65861590674006,7.2265508493114,5.65861590674006,7.2265508493114,1.56793494257133
206,20206,PERFORM2019:BUS:206,115,1.04238449364991,1.07387087000564,0.0314863763557389,5.14071403607488,6.5523125453826,5.14071403607488,6.5523125453826,1.41159850930774
366,20366,PERFORM2019:BUS:366,115,1.01204819306631,1.07238158832402,0.0603333952577096,9.78942631311951,10.9661317111898,9.78942631311951,10.9661317111898,1.17670539807031
367,20367,PERFORM2019:BUS:367,115,1.00782206832413,1.06279355776151,0.0549714894373818,9.76679000182964,7.83591992402996,9.76679000182964,7.83591992402996,-1.93087007779968
368,20368,PERFORM2019:BUS:368,115,1.00708479008194,1.06130246319474,0.0542176731128032,9.82162585939433,7.20641501628225,9.82162585939433,7.20641501628225,-2.61521084311207
369,20369,PERFORM2019:BUS:369,115,1.00636914821674,1.05815610168056,0.0517869534638247,9.76641021406266,6.36515625431595,9.76641021406266,6.36515625431595,-3.40125395974673
370,20370,PERFORM2019:BUS:370,115,1.02096595294734,1.0472394310488,0.0262734781014589,19.8045034027554,4.85769262101914,19.8045034027554,4.85769262101914,-14.9468107817363
371,20371,PERFORM2019:BUS:371,115,1.01947971468407,1.05318627512026,0.0337065604361906,19.8356651942666,7.27433118389163,19.8356651942666,7.27433118389163,-12.561334010375
372,20372,PERFORM2019:BUS:372,115,1.01944095206273,1.05543820081774,0.0359972487550038,19.890310275768,7.79604911751216,19.890310275768,7.79604911751216,-12.0942611582559
373,20373,PERFORM2019:BUS:373,115,1.0195590818051,1.05558702550453,0.036027943699426,19.7954023175563,7.7070519860159,19.7954023175563,7.7070519860159,-12.0883503315404
374,20374,PERFORM2019:BUS:374,115,1.01872417925319,1.05525838006587,0.036534200812679,19.9214788228195,8.30005902055709,19.9214788228195,8.30005902055709,-11.6214198022624
375,20375,PERFORM2019:BUS:375,115,1.01759121240572,1.05754281547157,0.0399516030658449,20.0651866034087,8.91985988910331,20.0651866034087,8.91985988910331,-11.1453267143054
376,20376,PERFORM2019:BUS:376,115,1.01769706518739,1.05698581737181,0.039288752184419,20.0052727217622,8.77066967396518,20.0052727217622,8.77066967396518,-11.234603047797
377,20377,PERFORM2019:BUS:377,115,1.01774895544939,1.05829868118502,0.0405497257356358,20.0897070317372,9.16151392118024,20.0897070317372,9.16151392118024,-10.928193110557
378,20378,PERFORM2019:BUS:378,115,1.01861849177197,1.05957039968407,0.0409519079120977,19.9405323626774,9.67493489440041,19.9405323626774,9.67493489440041,-10.265597468277
379,20379,PERFORM2019:BUS:379,115,1.01943868575736,1.06149232340221,0.0420536376448482,19.8123751779107,10.268772938941,19.8123751779107,10.268772938941,-9.54360223896973
380,20380,PERFORM2019:BUS:380,115,1.00470788021098,1.04984934117232,0.0451414609613405,9.81928232757546,3.74492372576342,9.81928232757546,3.74492372576342,-6.07435860181204
381,20381,PERFORM2019:BUS:381,115,1.00493730989744,1.05182452674022,0.0468872168427772,10.369736452885,4.22511784077857,10.369736452885,4.22511784077857,-6.1446186121064
382,20382,PERFORM2019:BUS:382,115,1.00120786712803,1.04532235844907,0.0441144913210429,7.22175543258851,2.96796293501708,7.22175543258851,2.96796293501708,-4.25379249757142
383,20383,PERFORM2019:BUS:383,115,1.00231293730385,1.04666964734656,0.0443567100427131,7.40018896519036,3.27358544206952,7.40018896519036,3.27358544206952,-4.12660352312085
384,20384,PERFORM2019:BUS:384,115,1.0001422640021,1.04373854635933,0.0435962823572265,6.80924309857525,2.67981319491504,6.80924309857525,2.67981319491504,-4.12942990366022
385,20385,PERFORM2019:BUS:385,115,0.999421741674718,1.04271513501052,0.043293393335802,6.52188295201695,2.46371984079996,6.52188295201695,2.46371984079996,-4.058163111217
386,20386,PERFORM2019:BUS:386,115,0.999706364984719,1.04310769418571,0.0434013292009942,6.7254244862029,2.60902533199992,6.7254244862029,2.60902533199992,-4.11639915420298
387,20387,PERFORM2019:BUS:387,115,1.00102445740372,1.04409966495584,0.0430752075521241,7.27744878372684,3.09173963246109,7.27744878372684,3.09173963246109,-4.18570915126574
388,20388,PERFORM2019:BUS:388,115,0.99857038099433,1.04059070397471,0.0420203229803811,5.49264751574398,1.88185932256985,5.49264751574398,1.88185932256985,-3.61078819317413
389,20389,PERFORM2019:BUS:389,115,0.998135092969534,1.04017555236146,0.0420404593919229,5.38258369937933,1.78047675206904,5.38258369937933,1.78047675206904,-3.60210694731029
390,20390,PERFORM2019:BUS:390,115,0.999504237925559,1.04279645561309,0.0432922176875286,6.53473268327238,2.47549481273316,6.53473268327238,2.47549481273316,-4.05923787053922
391,20391,PERFORM2019:BUS:391,115,1.00106068818154,1.04531027143789,0.0442495832563483,8.62624189316916,3.61648623077362,8.62624189316916,3.61648623077362,-5.00975566239555
392,20392,PERFORM2019:BUS:392,115,1.00413434060246,1.04817038846686,0.0440360478643937,10.2658066944868,5.30622896588878,10.2658066944868,5.30622896588878,-4.95957772859799
393,20393,PERFORM2019:BUS:393,115,1.0037995485157,1.04881054366979,0.045010995154092,9.46509799911965,3.61607838951824,9.46509799911965,3.61607838951824,-5.84901960960141
394,20394,PERFORM2019:BUS:394,115,1.02449523330657,1.06573386769227,0.0412386343857054,17.4353962211067,11.7213518970779,17.4353962211067,11.7213518970779,-5.71404432402878
395,20395,PERFORM2019:BUS:395,230,1.05958116216181,1.0898718094613,0.0302906472994924,25.4173182708658,23.353519057422,25.4173182708658,23.353519057422,-2.06379921344379
396,20396,PERFORM2019:BUS:396,115,1.00656797768097,1.0509971886055,0.0444292109245255,11.757170288484,6.58735141059352,11.757170288484,6.58735141059352,-5.16981887789044
397,20397,PERFORM2019:BUS:397,115,1.00656818392329,1.05099738609429,0.0444292021710009,11.7571938249733,6.58737300015574,11.7571938249733,6.58737300015574,-5.16982082481752
398,20398,PERFORM2019:BUS:398,115,1.00675971759889,1.05104506780145,0.0442853502025549,11.7878209720153,6.61781798927549,11.7878209720153,6.61781798927549,-5.17000298273982
399,20399,PERFORM2019:BUS:399,115,0.998716447544054,1.03789902288774,0.0391825753436842,4.5306975718919,1.5637108594586,4.5306975718919,1.5637108594586,-2.96698671243331
400,20400,PERFORM2019:BUS:400,115,0.99900012684726,1.0382715912593,0.0392714644120364,3.62621876934281,0.909442417258361,3.62621876934281,0.909442417258361,-2.71677635208445
401,20401,PERFORM2019:BUS:401,115,1.02183040881555,1.05112754258244,0.029297133766891,22.9205099371688,19.2512654505178,22.9205099371688,19.2512654505178,-3.66924448665102
402,20402,PERFORM2019:BUS:402,115,1.02634093227873,1.06161238069488,0.0352714484161534,21.3911878665779,16.4280815475085,21.3911878665779,16.4280815475085,-4.96310631906937
403,20403,PERFORM2019:BUS:403,115,1.02011530276155,1.05056952837869,0.0304542256171383,22.8853905266842,18.7580056567283,22.8853905266842,18.7580056567283,-4.12738486995588
404,20404,PERFORM2019:BUS:404,115,1.01598887406449,1.05047446445278,0.0344855903882821,24.4553654204168,20.3208763949887,24.4553654204168,20.3208763949887,-4.13448902542811
405,20405,PERFORM2019:BUS:405,115,1.01596883086721,1.05051877147297,0.0345499406057617,24.4827471083439,20.3456408809239,24.4827471083439,20.3456408809239,-4.13710622742002
406,20406,PERFORM2019:BUS:406,115,1.01689907828367,1.05049774324208,0.033598664958403,24.2385671940628,20.128039277846,24.2385671940628,20.128039277846,-4.11052791621677
407,20407,PERFORM2019:BUS:407,115,1.0162692245485,1.05031906806387,0.034049843515374,24.3505756329696,20.2309246958739,24.3505756329696,20.2309246958739,-4.11965093709568
408,20408,PERFORM2019:BUS:408,115,1.01641885338996,1.05018515790549,0.0337663045155325,24.2731395020345,20.1633137316376,24.2731395020345,20.1633137316376,-4.10982577039695
409,20409,PERFORM2019:BUS:409,115,1.01687721999294,1.04993282425632,0.0330556042633792,24.076295664681,19.98949452366,24.076295664681,19.98949452366,-4.08680114102091
410,20410,PERFORM2019:BUS:410,115,1.02115738894697,1.04904418263484,0.0278867936878628,23.505592365757,19.7180706531904,23.505592365757,19.7180706531904,-3.78752171256659
411,20411,PERFORM2019:BUS:411,115,1.02292465683805,1.04945759801971,0.0265329411816664,23.8247218387018,20.1870259393347,23.8247218387018,20.1870259393347,-3.63769589936709
412,20412,PERFORM2019:BUS:412,115,1.01542207446614,1.04114266924468,0.0257205947785459,20.9238613556693,16.7837090423841,20.9238613556693,16.7837090423841,-4.14015231328528
413,20413,PERFORM2019:BUS:413,115,1.01788443199475,1.04225622733151,0.0243717953367659,21.5985923210868,17.6558739760411,21.5985923210868,17.6558739760411,-3.94271834504565
414,20414,PERFORM2019:BUS:414,115,1.02800191104455,1.04869163426192,0.0206897232173662,24.2394976456616,20.9265124658437,24.2394976456616,20.9265124658437,-3.3129851798179
415,20415,PERFORM2019:BUS:415,115,1.04180544583023,1.05974606692734,0.0179406210971129,27.5475853794182,24.970035165149,27.5475853794182,24.970035165149,-2.57755021426922
416,20416,PERFORM2019:BUS:416,115,1.04175677670861,1.05969873720731,0.0179419604987019,27.5328906280155,24.955827051909,27.5328906280155,24.955827051909,-2.57706357610647
417,20417,PERFORM2019:BUS:417,115,1.04248104536242,1.06024277797558,0.0177617326131589,27.6977125875363,25.1524017483049,27.6977125875363,25.1524017483049,-2.54531083923146
418,20418,PERFORM2019:BUS:418,115,1.03978837755068,1.05844982823087,0.0186614506801954,27.1225643295661,24.4500422706738,27.1225643295661,24.4500422706738,-2.67252205889233
419,20419,PERFORM2019:BUS:419,115,1.01379322721093,1.04094251239955,0.027149285188627,20.5564139026072,16.1978779299216,20.5564139026072,16.1978779299216,-4.35853597268567
420,20420,PERFORM2019:BUS:420,115,1.0136641838135,1.04094826775396,0.027284083940464,20.5367020634594,16.1569634988479,20.5367020634594,16.1569634988479,-4.37973856461147
421,20421,PERFORM2019:BUS:421,115,1.00791660972709,1.03924156350326,0.0313249537761653,18.5224392556253,12.6873572816201,18.5224392556253,12.6873572816201,-5.83508197400516
422,20422,PERFORM2019:BUS:422,115,1.00777506537567,1.03910484117618,0.0313297758005062,18.4869649189469,12.6539823207488,18.4869649189469,12.6539823207488,-5.83298259819807
423,20423,PERFORM2019:BUS:423,115,1.00851042640324,1.03981027902675,0.0312998526235098,18.6892291426106,12.844054778235,18.6892291426106,12.844054778235,-5.84517436437562
424,20424,PERFORM2019:BUS:424,115,1.00976418887063,1.0429974359508,0.0332332470801706,18.6523955476761,12.0760412256885,18.6523955476761,12.0760412256885,-6.57635432198759
425,20425,PERFORM2019:BUS:425,115,1.00951592970595,1.04251149246719,0.0329955627612351,18.6315386954484,12.1443030675941,18.6315386954484,12.1443030675941,-6.48723562785432
426,20426,PERFORM2019:BUS:426,115,1.01185582877495,1.0408807220304,0.0290248932554495,20.125547567408,15.2776389735964,20.125547567408,15.2776389735964,-4.84790859381164
427,20427,PERFORM2019:BUS:427,115,1.01453221977553,1.04338679453842,0.0288545747628945,21.2863249753526,16.8842339370163,21.2863249753526,16.8842339370163,-4.40209103833632
428,20428,PERFORM2019:BUS:428,115,1.04760935068981,1.06430569998582,0.0166963492960179,28.7232041479103,26.3797540337669,28.7232041479103,26.3797540337669,-2.34345011414339
429,20429,PERFORM2019:BUS:429,115,1.04756866726818,1.06426616101604,0.0166974937478568,28.7102552031361,26.3672016598372,28.7102552031361,26.3672016598372,-2.34305354329894
430,20430,PERFORM2019:BUS:430,115,1.0124799603047,1.05800249323435,0.0455225329296494,8.17294321067871,6.22019960022244,8.17294321067871,6.22019960022244,-1.95274361045628
431,20431,PERFORM2019:BUS:431,115,1.00602730017798,1.05053044849361,0.0445031483156311,7.63686911257504,4.3294375075236,7.63686911257504,4.3294375075236,-3.30743160505145
432,20432,PERFORM2019:BUS:432,115,1.00209429752967,1.04646061943913,0.044366321909467,7.34309165108688,3.2205228306952,7.34309165108688,3.2205228306952,-4.12256882039168
433,20433,PERFORM2019:BUS:433,115,1.00207953545238,1.04644652249317,0.0443669870407923,7.33943965158101,3.21716395973122,7.33943965158101,3.21716395973122,-4.12227569184978
434,20434,PERFORM2019:BUS:434,115,1.00094708636138,1.04518845552778,0.0442413691664039,8.3009729165785,3.27339833965499,8.3009729165785,3.27339833965499,-5.02757457692351
435,20435,PERFORM2019:BUS:435,115,0.997785333076113,1.04228562466272,0.0445002915866078,7.39041128115476,2.45591534336363,7.39041128115476,2.45591534336363,-4.93449593779113
436,20436,PERFORM2019:BUS:436,115,0.997742742740494,1.04224491950273,0.0445021767622394,7.38007974293206,2.44644634960905,7.38007974293206,2.44644634960905,-4.93363339332302
437,20437,PERFORM2019:BUS:437,115,0.99773505771842,1.0422375834143,0.0445025256958839,7.37818495872948,2.44470964711989,7.37818495872948,2.44470964711989,-4.93347531160958
438,20438,PERFORM2019:BUS:438,115,0.999412743395984,1.0427046259141,0.0432918825181203,6.52527206482204,2.466858494504,6.52527206482204,2.466858494504,-4.05841357031804
439,20439,PERFORM2019:BUS:439,115,1.00082470204805,1.04507374788428,0.044249045836227,8.30333409917012,3.28085729395976,8.30333409917012,3.28085729395976,-5.02247680521035
440,20440,PERFORM2019:BUS:440,115,1.00082011169164,1.04507217071722,0.0442520590255773,8.35394554060918,3.33549719557305,8.35394554060918,3.33549719557305,-5.01844834503612
441,20441,PERFORM2019:BUS:441,115,1.01631505449794,1.05882702320786,0.042511968709924,15.1452624902116,9.64820848923917,15.1452624902116,9.64820848923917,-5.49705400097247
442,20442,PERFORM2019:BUS:442,115,1.02426587309225,1.04968484244413,0.0254189693518794,24.0683454832882,20.5605677338092,24.0683454832882,20.5605677338092,-3.507777749479
443,20443,PERFORM2019:BUS:443,115,1.02426848130776,1.04968738593647,0.0254189046287183,24.0689593206316,20.5611522223294,24.0689593206316,20.5611522223294,-3.50780709830221
444,20444,PERFORM2019:BUS:444,115,1.02903293297553,1.05192539921524,0.0228924662397076,25.0095896729027,21.791588019483,25.0095896729027,21.791588019483,-3.21800165341969
445,20445,PERFORM2019:BUS:445,115,1.03622837075886,1.05612183396544,0.0198934632065864,26.4319247511315,23.5896724829007,26.4319247511315,23.5896724829007,-2.84225226823074
446,20446,PERFORM2019:BUS:446,115,1.04748177416751,1.06418104033304,0.0166992661655283,28.6875187763527,26.3451678313367,28.6875187763527,26.3451678313367,-2.34235094501599
447,20447,PERFORM2019:BUS:447,115,1.03692940339325,1.06534975561068,0.0284203522174269,23.4209252904118,21.2085117055983,23.4209252904118,21.2085117055983,-2.2124135848135
448,20448,PERFORM2019:BUS:448,115,1.02392319424501,1.05332602984144,0.02940283559643,19.2432478037446,17.2502106903469,19.2432478037446,17.2502106903469,-1.99303711339775
449,20449,PERFORM2019:BUS:449,115,1.01200922671809,1.04744820838648,0.0354389816683882,15.880073579005,14.9137321676923,15.880073579005,14.9137321676923,-0.966341411312726
450,20450,PERFORM2019:BUS:450,115,1.0037601225532,1.03981520035436,0.0360550778011657,12.9410996346299,12.1559108058297,12.9410996346299,12.1559108058297,-0.785188828800187
451,20451,PERFORM2019:BUS:451,115,1.00164419304387,1.03927404076559,0.037629847721711,-0.511248819260417,-1.50486040804854,-0.511248819260417,-1.50486040804854,-0.993611588788127
452,20452,PERFORM2019:BUS:452,115,1.00185072852394,1.03945932763227,0.0376085991083246,-0.416340679628688,-1.41651579010492,-0.416340679628688,-1.41651579010492,-1.00017511047622
453,20453,PERFORM2019:BUS:453,115,1.00116096405584,1.03896704022527,0.0378060761694308,-0.335326971028428,-1.44975665462686,-0.335326971028428,-1.44975665462686,-1.11442968359844
454,20454,PERFORM2019:BUS:454,115,1.00083491765132,1.03894515392598,0.0381102362746628,-0.0577196408495868,-1.36184387797087,-0.0577196408495868,-1.36184387797087,-1.30412423712127
455,20455,PERFORM2019:BUS:455,115,1.00601276079252,1.04250170924435,0.0364889484518343,1.55844282167495,-0.212951704948271,1.55844282167495,-0.212951704948271,-1.77139452662323
456,20456,PERFORM2019:BUS:456,115,1.00778062870906,1.04374608211407,0.035965453405016,1.39821294352307,-0.24230350224451,1.39821294352307,-0.24230350224451,-1.64051644576759
457,20457,PERFORM2019:BUS:457,115,1.01158371954253,1.04655972455324,0.0349760050107049,1.30001668096578,-0.117317664509375,1.30001668096578,-0.117317664509375,-1.41733434547515
458,20458,PERFORM2019:BUS:458,115,1.0206371321901,1.05327092754102,0.0326337953509233,1.38040444111971,0.460021815316001,1.38040444111971,0.460021815316001,-0.920382625803711
459,20459,PERFORM2019:BUS:459,115,1.02919783530213,1.06022977955334,0.0310319442512037,2.20402949652557,1.57413810359221,2.20402949652557,1.57413810359221,-0.629891392933359
460,20460,PERFORM2019:BUS:460,115,1.01918936384306,1.05211872840144,0.032929364558381,1.25421145966521,0.281604302865831,1.25421145966521,0.281604302865831,-0.97260715679937
461,20461,PERFORM2019:BUS:461,115,1.01170736633771,1.04335281697998,0.0316454506422688,-4.85091398008163,-4.6072927294502,-4.85091398008163,-4.6072927294502,0.243621250631435
462,20462,PERFORM2019:BUS:462,115,1.01325705391792,1.04803920377367,0.034782149855745,4.79784279152031,4.44670248350135,4.79784279152031,4.44670248350135,-0.351140308018955
463,20463,PERFORM2019:BUS:463,115,1.01420855874659,1.05012938459891,0.0359208258523243,5.67987412929746,5.2444374679025,5.67987412929746,5.2444374679025,-0.435436661394959
464,20464,PERFORM2019:BUS:464,115,1.01280112979854,1.04875051303358,0.0359493832350424,5.57315587274855,5.14718623108564,5.57315587274855,5.14718623108564,-0.425969641662903
465,20465,PERFORM2019:BUS:465,115,1.01328373158918,1.04832017097599,0.0350364393868021,5.12029488353366,4.73942487579494,5.12029488353366,4.73942487579494,-0.380870007738707
466,20466,PERFORM2019:BUS:466,115,1.01391129064948,1.04821287344448,0.0343015827950028,5.02750575696468,4.66778068502325,5.02750575696468,4.66778068502325,-0.359725071941426
467,20467,PERFORM2019:BUS:467,115,1.01371066078014,1.04810927894817,0.03439861816803,4.92454549821096,4.57051619197699,4.92454549821096,4.57051619197699,-0.354029306233969
468,20468,PERFORM2019:BUS:468,115,1.01232808429007,1.04768934301528,0.0353612587252057,4.12156602757229,3.82367688404172,4.12156602757229,3.82367688404172,-0.297889143530568
469,20469,PERFORM2019:BUS:469,115,1.01380834110966,1.04821759575231,0.0344092546426504,4.7822143266114,4.43892903654904,4.7822143266114,4.43892903654904,-0.343285290062369
470,20470,PERFORM2019:BUS:470,115,1.01436058731386,1.04878495240365,0.0344243650897806,4.79043104875992,4.44640035637125,4.79043104875992,4.44640035637125,-0.344030692388657
471,20471,PERFORM2019:BUS:471,115,1.02019120200293,1.05391787877721,0.0337266767742743,4.28105237249221,3.99350273212594,4.28105237249221,3.99350273212594,-0.287549640366279
472,20472,PERFORM2019:BUS:472,115,1.01307540287247,1.04777807653425,0.0347026736617804,4.60251308336939,4.268313347831,4.60251308336939,4.268313347831,-0.334199735538391
473,20473,PERFORM2019:BUS:473,115,1.015608202783,1.05115057725466,0.0355423744716608,3.48233015866651,3.17013308690676,3.48233015866651,3.17013308690676,-0.312197071759755
474,20474,PERFORM2019:BUS:474,115,1.01387959698411,1.0496395333986,0.0357599364144903,5.40031244404366,4.98395077353157,5.40031244404366,4.98395077353157,-0.416361670512089
475,20475,PERFORM2019:BUS:475,115,1.01122540720186,1.04711747077936,0.0358920635774937,2.78731163932661,2.51943482579551,2.78731163932661,2.51943482579551,-0.267876813531103
476,20476,PERFORM2019:BUS:476,115,1.01132398984498,1.04721143167162,0.0358874418266451,2.81476924081758,2.54505889229438,2.81476924081758,2.54505889229438,-0.269710348523205
477,20477,PERFORM2019:BUS:477,115,1.03539492767254,1.07098710146782,0.0355921737952756,5.36863899511068,5.05974253090928,5.36863899511068,5.05974253090928,-0.30889646420141
478,20478,PERFORM2019:BUS:478,115,1.0023410064776,1.04045835978786,0.0381173533102606,-0.0645486499270135,-1.38667992105712,-0.0645486499270135,-1.38667992105712,-1.3221312711301
479,20479,PERFORM2019:BUS:479,69,1.0059690424116,1.04402545875256,0.0380564163409625,-0.177934018929282,-1.45209127990368,-0.177934018929282,-1.45209127990368,-1.27415726097439
480,20480,PERFORM2019:BUS:480,115,1.00004669414211,1.03827246707739,0.0382257729352788,1.83724890347733,-0.278809180935205,1.83724890347733,-0.278809180935205,-2.11605808441254
481,20481,PERFORM2019:BUS:481,115,0.999538951121001,1.03798546469367,0.0384465135726715,1.21599782433768,-0.732858941289332,1.21599782433768,-0.732858941289332,-1.948856765627
482,20482,PERFORM2019:BUS:482,115,0.999567142343712,1.03803810509448,0.0384709627507663,1.14882292609081,-0.774842661959121,1.14882292609081,-0.774842661959121,-1.92366558804994
483,20483,PERFORM2019:BUS:483,115,1.01205981420741,1.0486746391844,0.0366148249769951,1.57041393757393,0.843908313676414,1.57041393757393,0.843908313676414,-0.726505623897509
484,20484,PERFORM2019:BUS:484,115,1.00169567205922,1.03971328974644,0.0380176176872178,-0.0956865376539012,-1.35662699155244,-0.0956865376539012,-1.35662699155244,-1.26094045389854
485,20485,PERFORM2019:BUS:485,115,1.02631070182169,1.06308025639601,0.0367695545743147,12.2630445886819,11.4753780596132,12.2630445886819,11.4753780596132,-0.787666529068645
486,20486,PERFORM2019:BUS:486,115,1.02250694669718,1.05196726614458,0.0294603194473999,18.8545398595396,16.8827244301594,18.8545398595396,16.8827244301594,-1.9718154293802
487,20487,PERFORM2019:BUS:487,115,1.02183456947739,1.0513220021872,0.0294874327098147,18.6659117517112,16.7044167538148,18.6659117517112,16.7044167538148,-1.96149499789641
488,20488,PERFORM2019:BUS:488,115,1.0217761669526,1.05126553722889,0.0294893702762848,18.651070770299,16.6903927499416,18.651070770299,16.6903927499416,-1.96067802035736
489,20489,PERFORM2019:BUS:489,115,1.01720210522408,1.05438275591,0.0371806506859251,5.08189258078333,4.7424291836283,5.08189258078333,4.7424291836283,-0.339463397155043
490,20490,PERFORM2019:BUS:490,115,1.018858949322,1.05600007581978,0.0371411264977819,9.20159165715204,8.60756083978924,9.20159165715204,8.60756083978924,-0.594030817362807
491,20491,PERFORM2019:BUS:491,115,1.01646370071279,1.05372719674024,0.0372634960274512,6.22921101608733,5.82096909245596,6.22921101608733,5.82096909245596,-0.40824192363138
492,20492,PERFORM2019:BUS:492,115,1.01639996262839,1.05363703601632,0.0372370733879299,5.35714708065862,5.00238236054604,5.35714708065862,5.00238236054604,-0.35476472011257
493,20493,PERFORM2019:BUS:493,115,1.01305278497538,1.04453874102615,0.0314859560507732,-3.9645459453844,-3.77483682972764,-3.9645459453844,-3.77483682972764,0.189709115656768
494,20494,PERFORM2019:BUS:494,115,1.02112250408308,1.05193630865233,0.0308138045692454,-1.22572271933669,-1.19265494858046,-1.22572271933669,-1.19265494858046,0.0330677707562188
495,20495,PERFORM2019:BUS:495,115,1.03949348887751,1.06878138326958,0.029287894392072,3.28294683664164,3.06995110752123,3.28294683664164,3.06995110752123,-0.212995729120422
496,20496,PERFORM2019:BUS:496,115,1.05470027344207,1.08162248024125,0.0269222067991814,2.72252531403904,3.06054863467423,2.72252531403904,3.06054863467423,0.338023320635187
497,20497,PERFORM2019:BUS:497,115,1.05548811553652,1.08171820707683,0.0262300915403058,2.57096290719779,2.71959063767233,2.57096290719779,2.71959063767233,0.148627730474544
498,20498,PERFORM2019:BUS:498,115,1.05410159931065,1.08009270306616,0.0259911037555143,2.30892225292319,2.4161942601311,2.30892225292319,2.4161942601311,0.107272007207911
499,20499,PERFORM2019:BUS:499,115,1.0561454474065,1.08215412091402,0.0260086735075262,2.56287963063581,2.64159334388791,2.56287963063581,2.64159334388791,0.0787137132521138
500,20500,PERFORM2019:BUS:500,69,1.04249847225421,1.06933545005926,0.0268369778050439,1.03980232148924,1.30078898769172,1.03980232148924,1.30078898769172,0.260986666202484
501,20501,PERFORM2019:BUS:501,115,1.05564082902849,1.08258687129258,0.0269460422640899,2.89026135628068,3.18018821707294,2.89026135628068,3.18018821707294,0.289926860792264
502,20502,PERFORM2019:BUS:502,115,1.0268542424356,1.06292165017536,0.0360674077397636,4.18541573282234,3.85459781634584,4.18541573282234,3.85459781634584,-0.330817916476491
503,20503,PERFORM2019:BUS:503,115,1.02915772347641,1.0655503259948,0.0363926025183863,4.75727298620189,4.43983705191995,4.75727298620189,4.43983705191995,-0.317435934281946
504,20504,PERFORM2019:BUS:504,115,1.02934509824904,1.06606564546794,0.0367205472188996,5.03482169215871,4.69884245734824,5.03482169215871,4.69884245734824,-0.33597923481048
...
